9
Properties=species:S:1:pos:R:3 i=13 E=0.0062012722 pbc="F F F"
O        3.73376824       4.20154198       3.99805920
C        4.77508696       5.48542064       4.97048708
C        5.93313103       4.66826390       5.04286241
H        3.12802395       3.72321958       4.60434855
H        4.10798632       5.60218375       5.82426041
H        4.69667932       6.25787121       4.20567746
H        6.78647331       4.90314138       4.40652927
H        6.17397965       4.19495181       5.99623833
H        4.97022941       3.93999298       4.34395560
