62
Lattice="14.495335460933632 0.0 0.0 7.247667730466816 12.553328745545937 0.0 0.0 0.0 17.10123510595164" Properties=species:S:1:pos:R:3 pbc="T T T"
Au      14.50609294       1.65262129      14.71092918
Au       2.89894521       1.66456790      14.72566669
Au       5.78716437       1.65259164      14.71087988
Au       8.69006519       1.65342318      14.71735220
Au      11.60324779       1.65342561      14.71735808
Au      15.95549152       4.17851344      14.71060628
Au       4.33777611       4.17849625      14.71055318
Au       7.23208361       4.17088160      14.71361755
Au      10.14668050       4.17137157      14.71382472
Au      13.06124628       4.17090706      14.71362848
Au      17.39427849       6.68885501      14.73218046
Au       5.78268345       6.67323990      14.69377768
Au       8.71097505       6.69188825      14.74993393
Au      11.58225609       6.69192019      14.74989058
Au      14.51054493       6.67326816      14.69382436
Au      18.83940486       9.18640951      14.72076425
Au       7.25326672       9.19887423      14.70965226
Au      10.14659747       9.14456000      14.90605292
Au      13.03998597       9.19885691      14.70970077
Au      15.94921095       9.18640162      14.72076280
Au      20.29273315      11.69119686      14.71573123
Au       8.72570200      11.67381113      14.75652408
Au      11.56751724      11.67376291      14.75651061
Au      14.49589668      11.69117563      14.71571791
Au      17.39432389      11.70044903      14.72952600
Au      -0.05350733       0.00858966      17.08500040
Au       2.89884928       0.23561629      17.10565525
Au       5.85117566       0.00854726      17.08490725
Au       8.71533412      -0.00940067      17.15902853
Au      11.57770712      -0.00941309      17.15912358
Au       1.39673582       2.58823537      17.15032231
Au       4.40097310       2.58825079      17.15023044
Au       7.24728490       2.47129853      17.15441857
Au      10.14663303       2.45309212      17.12134028
Au      13.04577464       2.47137688      17.15450167
Au       2.89890186       5.01526389      17.16520898
Au       5.77440695       5.02127866      17.15142556
Au       8.64523693       4.91684263      17.06324597
Au      11.64804783       4.91706188      17.06330925
Au      14.51877937       5.02129380      17.15157400
Au      18.80814735       7.51154630      17.17977184
Au       7.13018992       7.48414333      17.06336288
Au      10.14632192       7.56924130      17.36278182
Au      13.16277662       7.48402387      17.06347259
Au      15.98024070       7.51155781      17.17979386
Au      20.16999146      10.04041028      17.17669502
Au       8.44551036       9.95620763      17.14702631
Au      11.84752043       9.95607723      17.14706208
Au      14.61836848      10.04035886      17.17664566
Au      17.39418463      10.02607269      17.16873186
C       10.14627604       6.44700889      19.12739761
C       11.35628119       5.95382954      19.67400883
C       11.35104719       4.95641351      20.66051452
C       10.14636673       4.43303882      21.13254915
C        8.94144139       4.95551588      20.65996400
C        8.93611876       5.95310059      19.67338933
Br      10.14654524      10.93537883      19.05640982
H       12.31273020       6.38836612      19.37345933
H       12.30249958       4.58905901      21.04836032
H       10.14635431       3.63713054      21.87850060
H        7.98993845       4.58753468      21.04720291
H        7.97934929       6.38717553      19.37255458
